src/tests/data/grids/test_ieee14_svs.dgs
********************************************************************************
*
* DIgSILENT (R) DGS Export V1.8.4
* Copyright 1997-2026 DIgSILENT GmbH. All rights reserved.
*
* DIgSILENT (C) PowerFactory V25.0.3.0
*
* Date:     03/29/2026 18:59
* Project:  IEEE14_SVS (Study Case: VSC)
*
********************************************************************************


$$General;FID(a:40);Descr(a:40);Val(a:255)
********************************************************************************
*  General Information
*
*  FID: Unique identifier for DGS file
*  Descr: Setting
*  Val: Value
********************************************************************************
  1;Version;7.0


$$ElmComp;FID(a:40);OP(a:1);loc_name(a:80);fold_id(p);outserv(i);typ_id(p)
********************************************************************************
*  Composite Model
*
*  FID: Unique identifier for DGS file
*  OP: Operation (C=create, U=update, D=delete, M=merge, I=ignore)
*  loc_name: Name
*  fold_id: In Folder
*  outserv: Out of Service
*  typ_id: Frame in BlkDef,BlkFrame
********************************************************************************
  2;C;WECC WT Control System Type 4B(1);85;0;
  3;C;WECC WT Control System Type 4B(2);85;0;
  4;C;WECC WT Control System Type 4B(3);85;0;
  5;C;WECC WT Control System Type 4B(4);85;0;
  6;C;WECC WT Control System Type 4B(6);85;0;
  7;C;WECC WT Control System Type 4B(7);85;0;
  8;C;WECC WT Control System Type 4B(8);85;0;
  9;C;WECC WT Control System Type 4B;85;0;


$$ElmDsl;FID(a:40);OP(a:1);loc_name(a:80);fold_id(p);typ_id(p);outserv(i)
********************************************************************************
*  DSL Model
*
*  FID: Unique identifier for DGS file
*  OP: Operation (C=create, U=update, D=delete, M=merge, I=ignore)
*  loc_name: Name
*  fold_id: In Folder
*  typ_id: Type in BlkDef*
*  outserv: Out of Service
********************************************************************************
  10;C;Protection;2;;1
  11;C;REEC_D Electrical Control Model;2;;0
  12;C;REGC_C Generator-Converter Model;2;;0
  13;C;WTGIBFFR_A Inertial-Base Fast-Frequency;2;;1
  14;C;WTGWGO_A Weak Grid Option Model;2;;1
  15;C;Protection;3;;1
  16;C;REEC_D Electrical Control Model;3;;0
  17;C;REGC_C Generator-Converter Model;3;;0
  18;C;WTGIBFFR_A Inertial-Base Fast-Frequency;3;;1
  19;C;WTGWGO_A Weak Grid Option Model;3;;1
  20;C;Protection;4;;1
  21;C;REEC_D Electrical Control Model;4;;0
  22;C;REGC_C Generator-Converter Model;4;;0
  23;C;WTGIBFFR_A Inertial-Base Fast-Frequency;4;;1
  24;C;WTGWGO_A Weak Grid Option Model;4;;1
  25;C;Protection;5;;1
  26;C;REEC_D Electrical Control Model;5;;0
  27;C;REGC_C Generator-Converter Model;5;;0
  28;C;WTGIBFFR_A Inertial-Base Fast-Frequency;5;;1
  29;C;WTGWGO_A Weak Grid Option Model;5;;1
  30;C;Protection;6;;1
  31;C;REEC_D Electrical Control Model;6;;0
  32;C;REGC_C Generator-Converter Model;6;;0
  33;C;WTGIBFFR_A Inertial-Base Fast-Frequency;6;;1
  34;C;WTGWGO_A Weak Grid Option Model;6;;1
  35;C;Protection;7;;1
  36;C;REEC_D Electrical Control Model;7;;0
  37;C;REGC_C Generator-Converter Model;7;;0
  38;C;WTGIBFFR_A Inertial-Base Fast-Frequency;7;;1
  39;C;WTGWGO_A Weak Grid Option Model;7;;1
  40;C;Protection;8;;1
  41;C;REEC_D Electrical Control Model;8;;0
  42;C;REGC_C Generator-Converter Model;8;;0
  43;C;WTGIBFFR_A Inertial-Base Fast-Frequency;8;;1
  44;C;WTGWGO_A Weak Grid Option Model;8;;1
  45;C;Protection;9;;1
  46;C;REEC_D Electrical Control Model;9;;0
  47;C;REGC_C Generator-Converter Model;9;;0
  48;C;WTGIBFFR_A Inertial-Base Fast-Frequency;9;;1
  49;C;WTGWGO_A Weak Grid Option Model;9;;1


$$ElmGenstat;FID(a:40);OP(a:1);loc_name(a:80);fold_id(p);outserv(i);sgn(r);cosn(r);cCategory(a);av_mode(a);mode_inp(a:6);pgini(r);qgini(r);sgini(r);cosgini(r);pf_recap(i);phtech(i);ngnum(i);ip_ctrl(i);usetp(r);phiini(r);Kpf(r);scale0(r);ddroop(r);usp_max(r);usp_min(r);cQ_min(r);cQ_max(r)
********************************************************************************
*  Static Generator
*
*  FID: Unique identifier for DGS file
*  OP: Operation (C=create, U=update, D=delete, M=merge, I=ignore)
*  loc_name: Name
*  fold_id: In Folder
*  outserv: Out of Service
*  sgn: Ratings: Rated apparent power in MVA
*  cosn: Ratings: Rated power factor
*  cCategory: Plant Category
*  av_mode: Local controller
*  mode_inp: Dispatch: Input mode
*  pgini: Dispatch: Active power in MW
*  qgini: Dispatch: Reactive power in Mvar
*  sgini: Dispatch: Apparent power in MVA
*  cosgini: Dispatch: Power factor
*  pf_recap: Dispatch: Power factor:ind.:cap.
*  phtech: Technology:3PH:3PH-E:1PH PH-E:1PH PH-N:1PH PH-PH
*  ngnum: Number of: parallel units
*  ip_ctrl: Reference machine
*  usetp: Dispatch: Voltage in p.u.
*  phiini: Dispatch: Angle in deg
*  Kpf: Dispatch: Prim. frequency bias in MW/Hz
*  scale0: Dispatch: Scaling factor
*  ddroop: Voltage droop: Droop in %
*  usp_max: Voltage Setpoint Limits: Max. Voltage Setpoint in p.u.
*  usp_min: Voltage Setpoint Limits: Min. Voltage Setpoint in p.u.
*  cQ_min: Reactive Power Operational Limits: Minimum in Mvar
*  cQ_max: Reactive Power Operational Limits: Maximum in Mvar
********************************************************************************
  50;C;WT 02;85;0;10;1;Wind;vdroop;PQ;10;0;10;1;0;0;1;0;1;0;0;1;5;1,1;0,9;-990;990
  51;C;WT 03;85;0;10;1;Wind;vdroop;PQ;10;0;10;1;0;0;1;0;1;0;0;1;5;1,1;0,9;-990;990
  52;C;WT 06;85;0;10;1;Wind;vdroop;PQ;10;0;10;1;0;0;1;0;1;0;0;1;5;1,1;0,9;-990;990
  53;C;WT 07;85;0;10;1;Wind;vdroop;PQ;10;0;10;1;0;0;1;0;1;0;0;1;5;1,1;0,9;-990;990
  54;C;WT 10;85;0;10;1;Wind;vdroop;PQ;10;0;10;1;0;0;1;0;1;0;0;1;5;1,1;0,9;-990;990
  55;C;WT 12;85;0;10;1;Wind;vdroop;PQ;10;0;10;1;0;0;1;0;1;0;0;1;5;1,1;0,9;-990;990
  56;C;WT 13;85;0;10;1;Wind;vdroop;PQ;10;0;10;1;0;0;1;0;1;0;0;1;5;1,1;0,9;-990;990
  57;C;WT 14;85;0;10;1;Wind;vdroop;PQ;10;0;10;1;0;0;1;0;1;0;0;1;5;1,1;0,9;-990;990


$$ElmLne;FID(a:40);OP(a:1);loc_name(a:80);fold_id(p);typ_id(p);dline(r);fline(r);GPScoords:MATRIX(a);nlnum(i);inAir(i)
********************************************************************************
*  Line
*
*  FID: Unique identifier for DGS file
*  OP: Operation (C=create, U=update, D=delete, M=merge, I=ignore)
*  loc_name: Name
*  fold_id: In Folder
*  typ_id: Type in TypLne,TypTow,TypGeo,TypCabsys
*  dline: Parameters: Length of Line in km
*  fline: Parameters: Derating Factor
*  GPScoords:MATRIX: Geographical Position [0]
*  nlnum: Number of: parallel Lines
*  inAir: Parameters: Laying:Ground:Air
********************************************************************************
  58;C;LN_01-02-a;85;446;1;1;;1;0
  59;C;LN_01-02-b;85;446;1;1;;1;0
  60;C;LN_01-05;85;447;1;1;;1;0
  61;C;LN_02-03;85;448;1;1;;1;0
  62;C;LN_02-04;85;449;1;1;;1;0
  63;C;LN_02-05;85;450;1;1;;1;0
  64;C;LN_03-04;85;451;1;1;;1;0
  65;C;LN_04-05;85;452;1;1;;1;0
  66;C;LN_06-11;85;453;1;1;;1;0
  67;C;LN_06-12;85;454;1;1;;1;0
  68;C;LN_06-13;85;455;1;1;;1;0
  69;C;LN_09-10;85;456;1;1;;1;0
  70;C;LN_09-14;85;457;1;1;;1;0
  71;C;LN_10-11;85;458;1;1;;1;0
  72;C;LN_12-13;85;459;1;1;;1;0
  73;C;LN_13-14;85;460;1;1;;1;0


$$ElmLod;FID(a:40);OP(a:1);loc_name(a:80);fold_id(p);typ_id(p);mode_inp(a:6);slini(r);plini(r);qlini(r);coslini(r);pf_recap(i);scale0(r);i_scale(i);outserv(i);classif(a:40)
********************************************************************************
*  General Load
*
*  FID: Unique identifier for DGS file
*  OP: Operation (C=create, U=update, D=delete, M=merge, I=ignore)
*  loc_name: Name
*  fold_id: In Folder
*  typ_id: Type in TypLod,TypLodind,TypLodwecc
*  mode_inp: Input Mode
*  slini: Operating Point: Apparent Power in MVA
*  plini: Operating Point: Active Power in MW
*  qlini: Operating Point: Reactive Power in Mvar
*  coslini: Operating Point: Power Factor
*  pf_recap: Operating Point: Power Factor:ind.:cap.
*  scale0: Operating Point: Scaling Factor
*  i_scale: Operating Point: Adjusted by Load Scaling
*  outserv: Out of Service
*  classif: Load Classification:Agricultural:Domestic:Commercial:Industrial
********************************************************************************
  74;C;LD_02;85;;DEF;25,14319;21,7;12,7;0,863056;0;1;1;0;
  75;C;LD_03;85;;DEF;96,09703;94,2;19;0,980259;0;1;1;0;
  76;C;LD_04;85;;DEF;47,95884;47,8;-3,9;0,996688;1;1;1;0;
  77;C;LD_05;85;;DEF;7,766595;7,6;1,6;0,978549;0;1;1;0;
  78;C;LD_06;85;;DEF;13,47924;11,2;7,5;0,830907;0;1;1;0;
  79;C;LD_09;85;;DEF;33,84982;29,5;16,6;0,871496;0;1;1;0;
  80;C;LD_10;85;;DEF;10,70701;9;5,8;0,840571;0;1;1;0;
  81;C;LD_11;85;;DEF;3,935734;3,5;1,8;0,889287;0;1;1;0;
  82;C;LD_12;85;;DEF;6,306346;6,1;1,6;0,967279;0;1;1;0;
  83;C;LD_13;85;;DEF;14,6932;13,5;5,8;0,918792;0;1;1;0;
  84;C;LD_14;85;;DEF;15,71655;14,9;5;0,948045;0;1;1;0;


$$ElmNet;FID(a:40);OP(a:1);loc_name(a:80);fold_id(p);frnom(r);pDiagram(p)
********************************************************************************
*  Grid
*
*  FID: Unique identifier for DGS file
*  OP: Operation (C=create, U=update, D=delete, M=merge, I=ignore)
*  loc_name: Name
*  fold_id: In Folder
*  frnom: Nominal Frequency in Hz
*  pDiagram: Diagram in IntGrfnet
********************************************************************************
  85;C;Grid;;50;281


$$ElmSvs;FID(a:40);OP(a:1);loc_name(a:80);fold_id(p);qmax(r);tcrmax(r);nxcap(i);qmin(r);nfixcap(i);Qfixcap(r);outserv(i);i_ctrl(i);i_droop(i);tcrqact(r);nncap(i);usetp(r);Srated(r);ddroop(r);qsetp(r)
********************************************************************************
*  Static Var System
*
*  FID: Unique identifier for DGS file
*  OP: Operation (C=create, U=update, D=delete, M=merge, I=ignore)
*  loc_name: Name
*  fold_id: In Folder
*  qmax: TCR: Q of reactance (>0) in Mvar
*  tcrmax: TCR: Max. limit in Mvar
*  nxcap: TSC: Max. number of capacitors
*  qmin: TSC: Q per capacitor (<0) in Mvar
*  nfixcap: MSC: Number of capacitors
*  Qfixcap: MSC: Q per capacitor (<0) in Mvar
*  outserv: Out of Service
*  i_ctrl: Control mode
*  i_droop: Enable droop
*  tcrqact: Actual values: Act. value of TCR in Mvar
*  nncap: Actual values: Act. number of capacitors
*  usetp: Voltage setpoint in p.u.
*  Srated: Enable droop: Rated reactive power in Mvar
*  ddroop: Enable droop: Droop in %
*  qsetp: Q Setpoint in Mvar
********************************************************************************
  86;C;SVS_Droop;85;10;10;2;-20;0;0;0;1;1;6;2;1;30;3;0
  87;C;SVS_NoControl;85;5;5;1;-10;0;0;0;0;0;3;1;1;10;5;-10
  88;C;SVS_Qcontrol;85;30;30;2;-15;1;-5;0;2;0;15;2;1;0;0;-20
  89;C;SVS_Ucontrol;85;0;0;0;0;0;0;0;1;0;0;0;1;0;0;0


$$ElmTerm;FID(a:40);OP(a:1);loc_name(a:80);fold_id(p);typ_id(p);systype(i);iUsage(i);uknom(r);unknom(r);iminus(i);outserv(i);GPSlat(r);GPSlon(r);vtarget(r)
********************************************************************************
*  Terminal
*
*  FID: Unique identifier for DGS file
*  OP: Operation (C=create, U=update, D=delete, M=merge, I=ignore)
*  loc_name: Name
*  fold_id: In Folder
*  typ_id: Type in TypBar
*  systype: System Type:AC:DC:AC/BI
*  iUsage: Usage:Busbar:Junction Node:Internal Node
*  uknom: Nominal Voltage: Line-Line in kV
*  unknom: Nominal Voltage: Line-Ground in kV
*  iminus: Nominal Voltage: DC-Polarity:positive (+):negative (-):neutral
*  outserv: Out of Service
*  GPSlat: Geographical Position: Latitude / Northing in deg
*  GPSlon: Geographical Position: Longitude / Easting in deg
*  vtarget: Voltage Control: Target Voltage in p.u.
********************************************************************************
  90;C;BB_01;85;443;0;0;132;76,21024;0;0;0;0;1
  91;C;BB_02;85;443;0;0;132;76,21024;0;0;0;0;1
  92;C;BB_03;85;443;0;0;132;76,21024;0;0;0;0;1
  93;C;BB_04;85;443;0;0;132;76,21024;0;0;0;0;1
  94;C;BB_05;85;443;0;0;132;76,21024;0;0;0;0;1
  95;C;BB_06;85;445;0;0;33;19,05256;0;0;0;0;1
  96;C;BB_07;85;444;0;0;1;0,577350;0;0;0;0;1
  97;C;BB_09;85;445;0;0;33;19,05256;0;0;0;0;1
  98;C;BB_10;85;445;0;0;33;19,05256;0;0;0;0;1
  99;C;BB_11;85;445;0;0;33;19,05256;0;0;0;0;1
  100;C;BB_12;85;445;0;0;33;19,05256;0;0;0;0;1
  101;C;BB_13;85;445;0;0;33;19,05256;0;0;0;0;1
  102;C;BB_14;85;445;0;0;33;19,05256;0;0;0;0;1
  103;C;BB_VSC_02;85;;0;0;0,4;0,230940;0;0;0;0;1
  104;C;BB_VSC_03;85;;0;0;0,4;0,230940;0;0;0;0;1
  105;C;BB_VSC_06;85;;0;0;0,4;0,230940;0;0;0;0;1
  106;C;BB_VSC_07;85;;0;0;0,4;0,230940;0;0;0;0;1
  107;C;BB_VSC_10;85;;0;0;0,4;0,230940;0;0;0;0;1
  108;C;BB_VSC_12;85;;0;0;0,4;0,230940;0;0;0;0;1
  109;C;BB_VSC_13;85;;0;0;0,4;0,230940;0;0;0;0;1
  110;C;BB_VSC_14;85;;0;0;0,4;0,230940;0;0;0;0;1


$$ElmTr2;FID(a:40);OP(a:1);loc_name(a:80);fold_id(p);typ_id(p);ntnum(i);outserv(i);nntap(i);i_auto(i);ntrcn(i);usetp(r);usp_low(r);usp_up(r);t2ldc(i)
********************************************************************************
*  2-Winding Transformer
*
*  FID: Unique identifier for DGS file
*  OP: Operation (C=create, U=update, D=delete, M=merge, I=ignore)
*  loc_name: Name
*  fold_id: In Folder
*  typ_id: Type in TypTr2
*  ntnum: Number of: parallel Transformers
*  outserv: Out of Service
*  nntap: Tap Changer 1: Tap Position
*  i_auto: Auto Transformer
*  ntrcn: Automatic Tap Changing
*  usetp: Voltage Setpoint in p.u.
*  usp_low: Lower Voltage Bound in p.u.
*  usp_up: Upper Voltage Bound in p.u.
*  t2ldc: Controlled Node is at:HV:LV:EXT
********************************************************************************
  111;C;TR_04-07;85;461;1;0;0;0;0;1;0,99;1,01;0
  112;C;TR_04-09;85;462;1;0;0;0;0;1;0,99;1,01;0
  113;C;TR_05-06;85;463;1;0;0;0;0;1;0,99;1,01;0
  114;C;TR_07-09;85;464;1;0;0;0;0;1;0,99;1,01;0
  115;C;TR_VSC_02;85;466;1;0;0;0;0;1;0,99;1,01;0
  116;C;TR_VSC_03;85;466;1;0;0;0;0;1;0,99;1,01;0
  117;C;TR_VSC_06;85;467;1;0;0;0;0;1;0,99;1,01;0
  118;C;TR_VSC_07;85;465;1;0;0;0;0;1;0,99;1,01;0
  119;C;TR_VSC_10;85;467;1;0;0;0;0;1;0,99;1,01;0
  120;C;TR_VSC_12;85;467;1;0;0;0;0;1;0,99;1,01;0
  121;C;TR_VSC_13;85;467;1;0;0;0;0;1;0,99;1,01;0
  122;C;TR_VSC_14;85;467;1;0;0;0;0;1;0,99;1,01;0


$$ElmXnet;FID(a:40);OP(a:1);loc_name(a:80);fold_id(p);snss(r);rntxn(r);z2tz1(r);snssmin(r);rntxnmin(r);z2tz1min(r);chr_name(a:40);bustp(a:2);pgini(r);qgini(r);phiini(r);usetp(r);outserv(i);Kpf(r);K(r);cmax(r);xd(r);xq(r)
********************************************************************************
*  External Grid
*
*  FID: Unique identifier for DGS file
*  OP: Operation (C=create, U=update, D=delete, M=merge, I=ignore)
*  loc_name: Name
*  fold_id: In Folder
*  snss: Max. Values: Short-Circuit Power Sk''max in MVA
*  rntxn: Max. Values: R/X Ratio (max.)
*  z2tz1: Max. Values: Z2/Z1 max.
*  snssmin: Min. Values: Short-Circuit Power Sk''min in MVA
*  rntxnmin: Min. Values: R/X Ratio (min.)
*  z2tz1min: Min. Values: Z2/Z1 min.
*  chr_name: Characteristic Name
*  bustp: Bus Type:PQ:PV:SL
*  pgini: Operation Point: Active Power in MW
*  qgini: Operation Point: Reactive Power in Mvar
*  phiini: Operation Point: Angle in deg
*  usetp: Operation Point: Voltage Setpoint in p.u.
*  outserv: Out of Service
*  Kpf: Operation Point: Primary Frequency Bias in MW/Hz
*  K: Operation Point: Secondary Frequency Bias in MW/Hz
*  cmax: Max. Values: c-Factor (max.)
*  xd: Synchronous Reactances: xd in p.u.
*  xq: Synchronous Reactances: xq in p.u.
********************************************************************************
  123;C;External Grid;85;1,7424e+07;0;1;1,7424e+07;0;1;;SL;0;0;0;1;0;0;0;1;0,2;0,2


$$IntFolder;FID(a:40);OP(a:1);loc_name(a:80);fold_id(p)
********************************************************************************
*  Folder
*
*  FID: Unique identifier for DGS file
*  OP: Operation (C=create, U=update, D=delete, M=merge, I=ignore)
*  loc_name: Name
*  fold_id: In Folder
********************************************************************************
  124;C;Layers;281
  125;C;Settings;281
  126;C;Equipment Type Library;127
  127;C;Library;282


$$IntGrf;FID(a:40);OP(a:1);loc_name(a:80);fold_id(p);iCol(i);iVis(i);iLevel(i);rCenterX(r);rCenterY(r);sSymNam(a:80);pDataObj(p);iRot(i);rSizeX(r);rSizeY(r)
********************************************************************************
*  Graphical Net Object
*
*  FID: Unique identifier for DGS file
*  OP: Operation (C=create, U=update, D=delete, M=merge, I=ignore)
*  loc_name: Name
*  fold_id: In Folder
*  iCol: Colour
*  iVis: Visible
*  iLevel: Layer
*  rCenterX: X-Position
*  rCenterY: Y-Position
*  sSymNam: Symbol Name
*  pDataObj: Net Data Object
*  iRot: Rotation
*  rSizeX: X-Size
*  rSizeY: Y-Size
********************************************************************************
  128;C;Graphical Net Object1;281;-16777216;1;1;155,3125;245;TermStrip;90;0;1,5;1
  129;C;Graphical Net Object10;281;-16777216;1;1;317,1875;350;TermStrip;98;0;2,166667;1
  130;C;Graphical Net Object11(1);281;-16777216;1;1;280;142,1875;d_tr2;115;180;1;1
  131;C;Graphical Net Object11(11);281;-16777216;1;1;406,875;275,625;d_tr2;118;270;1;1
  132;C;Graphical Net Object11(13);281;-16777216;1;1;234,0625;301,875;d_tr2;117;90;1;1
  133;C;Graphical Net Object11(15);281;-16777216;1;1;319,375;334,6875;d_tr2;119;180;1;1
  134;C;Graphical Net Object11(3);281;-16777216;1;1;393,75;142,1875;d_tr2;116;0;1;1
  135;C;Graphical Net Object11(5);281;-16777216;1;1;179,375;409,0625;d_tr2;120;0;1;1
  136;C;Graphical Net Object11(7);281;-16777216;1;1;236,25;435,3125;d_tr2;121;0;1;1
  137;C;Graphical Net Object11(9);281;-16777216;1;1;411,25;426,5625;d_tr2;122;0;1;1
  138;C;Graphical Net Object11;281;-16777216;1;1;317,1875;411,25;TermStrip;99;0;1,5;1
  139;C;Graphical Net Object12;281;-16777216;1;1;170,625;393,75;TermStrip;100;0;1,666667;1
  140;C;Graphical Net Object13;281;-16777216;1;1;245;420;TermStrip;101;0;2;1
  141;C;Graphical Net Object14;281;-16777216;1;1;389,375;411,25;TermStrip;102;0;2,333333;1
  142;C;Graphical Net Object15;281;-16777216;1;1;199,0625;196,875;d_lin;58;90;1;1
  143;C;Graphical Net Object16;281;-16777216;1;1;207,8125;205,625;d_lin;59;90;1;1
  144;C;Graphical Net Object17;281;-16777216;1;1;212,1875;214,375;d_lin;60;90;1;1
  145;C;Graphical Net Object18;281;-16777216;1;1;325,9375;196,875;d_lin;61;90;1;1
  146;C;Graphical Net Object19;281;-16777216;1;1;321,5625;205,625;d_lin;62;90;1;1
  147;C;Graphical Net Object2(1);281;-16777216;1;1;380,625;161,875;TermStrip;92;0;2;1
  148;C;Graphical Net Object2(2);281;-16777216;1;1;369,6875;245;TermStrip;93;0;1,833333;1
  149;C;Graphical Net Object2(3);281;-16777216;1;1;264,6875;245;TermStrip;94;0;1,5;1
  150;C;Graphical Net Object2(4);281;-16777216;1;1;255,9375;288,75;TermStrip;95;0;1,833333;1
  151;C;Graphical Net Object2;281;-16777216;1;1;264,6875;161,875;TermStrip;91;0;1,833333;1
  152;C;Graphical Net Object20;281;-16777216;1;1;266,875;203,4375;d_lin;63;180;1;1
  153;C;Graphical Net Object21;281;-16777216;1;1;376,25;203,4375;d_lin;64;180;1;1
  154;C;Graphical Net Object22;281;-16777216;1;1;317,1875;214,375;d_lin;65;270;1;1
  155;C;Graphical Net Object23;281;-16777216;1;1;207,8125;350;d_lin;67;270;1;1
  156;C;Graphical Net Object24;281;-16777216;1;1;262,5;354,375;d_lin;68;180;1;1
  157;C;Graphical Net Object25;281;-16777216;1;1;295,3125;363,125;d_lin;66;90;1;1
  158;C;Graphical Net Object26;281;-16777216;1;1;363,125;328,125;d_lin;69;270;1;1
  159;C;Graphical Net Object27;281;-16777216;1;1;328,125;380,625;d_lin;71;180;1;1
  160;C;Graphical Net Object28;281;-16777216;1;1;212,1875;358,75;d_lin;72;90;1;1
  161;C;Graphical Net Object29;281;-16777216;1;1;319,375;476,875;d_lin;73;90;1;1
  162;C;Graphical Net Object3(11);281;-16777216;1;1;424,375;271,25;TermStrip;106;90;0,666666;1
  163;C;Graphical Net Object3(13);281;-16777216;1;1;218,75;306,25;TermStrip;105;270;0,666666;1
  164;C;Graphical Net Object3(15);281;-16777216;1;1;315;319,375;TermStrip;107;0;0,666666;1
  165;C;Graphical Net Object3(3);281;-16777216;1;1;389,375;122,5;TermStrip;104;0;0,666666;1
  166;C;Graphical Net Object3(5);281;-16777216;1;1;179,375;424,375;TermStrip;108;0;1;1
  167;C;Graphical Net Object3(7);281;-16777216;1;1;234,0625;450,625;TermStrip;109;0;0,833333;1
  168;C;Graphical Net Object3(9);281;-16777216;1;1;409,0625;441,875;TermStrip;110;0;0,833333;1
  169;C;Graphical Net Object3;281;-16777216;1;1;275,625;122,5;TermStrip;103;0;0,666666;1
  170;C;Graphical Net Object30;281;-16777216;1;1;371,875;358,75;d_lin;70;0;1;1
  171;C;Graphical Net Object36;281;-16777216;1;1;376,25;262,5;d_tr2;111;0;1;1
  172;C;Graphical Net Object37;281;-16777216;1;1;363,125;275,625;d_tr2;112;180;1;1
  173;C;Graphical Net Object38;281;-16777216;1;1;262,5;266,875;d_tr2;113;180;1;1
  174;C;Graphical Net Object40;281;-16777216;1;1;376,25;288,75;d_tr2;114;180;1;1
  175;C;Graphical Net Object41;281;-16777216;1;1;262,5;144,375;d_load;74;0;1;1
  176;C;Graphical Net Object42;281;-16777216;1;1;376,25;144,375;d_load;75;0;1;1
  177;C;Graphical Net Object43;281;-16777216;1;1;385;227,5;d_load;76;0;1;1
  178;C;Graphical Net Object44;281;-16777216;1;1;280;262,5;d_load;77;90;1;1
  179;C;Graphical Net Object45;281;-16777216;1;1;280;271,25;d_load;78;90;1;1
  180;C;Graphical Net Object46;281;-16777216;1;1;380,625;323,75;d_load;79;180;1;1
  181;C;Graphical Net Object47;281;-16777216;1;1;336,875;367,5;d_load;80;180;1;1
  182;C;Graphical Net Object48;281;-16777216;1;1;323,75;428,75;d_load;81;180;1;1
  183;C;Graphical Net Object49;281;-16777216;1;1;161,875;411,25;d_load;82;180;1;1
  184;C;Graphical Net Object50;281;-16777216;1;1;253,75;437,5;d_load;83;180;1;1
  185;C;Graphical Net Object51;281;-16777216;1;1;380,625;398,125;d_load;84;0;1;1
  186;C;Graphical Net Object7(10);281;-16777216;1;1;450,625;275,625;d_genstat;53;90;1;1
  187;C;Graphical Net Object7(11);281;-16777216;1;1;280;100,625;d_genstat;50;0;1;1
  188;C;Graphical Net Object7(12);281;-16777216;1;1;393,75;100,625;d_genstat;51;0;1;1
  189;C;Graphical Net Object7(4);281;-16777216;1;1;411,25;463,75;d_genstat;57;180;1;1
  190;C;Graphical Net Object7(5);281;-16777216;1;1;236,25;472,5;d_genstat;56;180;1;1
  191;C;Graphical Net Object7(6);281;-16777216;1;1;179,375;446,25;d_genstat;55;180;1;1
  192;C;Graphical Net Object7(7);281;-16777216;1;1;192,5;306,25;d_genstat;52;270;1;1
  193;C;Graphical Net Object7(8);281;-16777216;1;1;319,375;297,5;d_genstat;54;0;1;1
  194;C;Graphical Net Object7;281;-16777216;1;1;389,375;273,4375;TermStrip;96;90;0,833333;1
  195;C;Graphical Net Object80;281;-16777216;1;1;157,5;266,875;d_net;123;180;1;1
  196;C;Graphical Net Object81;281;-16777216;1;1;306,25;428,75;d_svs;87;180;1;1
  197;C;Graphical Net Object82;281;-16777216;1;1;393,75;323,75;d_svs;86;180;1;1
  198;C;Graphical Net Object83;281;-16777216;1;1;398,125;393,75;d_svs;88;0;1;1
  199;C;Graphical Net Object84;281;-16777216;1;1;188,125;376,25;d_svs;89;0;1;1
  200;C;Graphical Net Object9;281;-16777216;1;1;374,0625;306,25;TermStrip;97;0;1,833333;1


$$IntGrfcon;FID(a:40);OP(a:1);loc_name(a:80);fold_id(p);rX:SIZEROW(i);rX:0(r);rX:1(r);rX:2(r);rY:SIZEROW(i);rY:0(r);rY:1(r);rY:2(r);iDatConNr(i)
********************************************************************************
*  Graphical Connection
*
*  FID: Unique identifier for DGS file
*  OP: Operation (C=create, U=update, D=delete, M=merge, I=ignore)
*  loc_name: Name
*  fold_id: In Folder
*  rX:SIZEROW: Number of rows for attribute 'rX'
*  rX: X
*  rY:SIZEROW: Number of rows for attribute 'rY'
*  rY: Y
*  iDatConNr: Internal Connection Number
********************************************************************************
  201;C;GCO_1;130;2;280;280;;2;137,8125;122,5;;1
  202;C;GCO_2;130;2;280;280;;2;146,5625;161,875;;0
  203;C;GCO_1;131;2;411,25;424,375;;2;275,625;275,625;;1
  204;C;GCO_2;131;2;402,5;389,375;;2;275,625;275,625;;0
  205;C;GCO_1;132;2;229,6875;218,75;;2;301,875;301,875;;1
  206;C;GCO_2;132;3;238,4375;245;245;3;301,875;301,875;288,75;0
  207;C;GCO_1;133;2;319,375;319,375;;2;330,3125;319,375;;1
  208;C;GCO_2;133;2;319,375;319,375;;2;339,0625;350;;0
  209;C;GCO_1;134;2;393,75;393,75;;2;146,5625;161,875;;0
  210;C;GCO_2;134;2;393,75;393,75;;2;137,8125;122,5;;1
  211;C;GCO_1;135;2;179,375;179,375;;2;413,4375;424,375;;1
  212;C;GCO_2;135;2;179,375;179,375;;2;404,6875;393,75;;0
  213;C;GCO_1;136;2;236,25;236,25;;2;439,6875;450,625;;1
  214;C;GCO_2;136;2;236,25;236,25;;2;430,9375;420;;0
  215;C;GCO_1;137;2;411,25;411,25;;2;430,9375;441,875;;1
  216;C;GCO_2;137;2;411,25;411,25;;2;422,1875;411,25;;0
  217;C;GCO_1;142;3;199,0625;148,75;148,75;3;196,875;196,875;245;0
  218;C;GCO_2;142;3;199,0625;249,375;249,375;3;196,875;196,875;161,875;1
  219;C;GCO_1;143;3;207,8125;157,5;157,5;3;205,625;205,625;245;0
  220;C;GCO_2;143;3;207,8125;258,125;258,125;3;205,625;205,625;161,875;1
  221;C;GCO_1;144;3;212,1875;166,25;166,25;3;214,375;214,375;245;0
  222;C;GCO_2;144;3;212,1875;258,125;258,125;3;214,375;214,375;245;1
  223;C;GCO_1;145;3;325,9375;284,375;284,375;3;196,875;196,875;161,875;0
  224;C;GCO_2;145;3;325,9375;367,5;367,5;3;196,875;196,875;161,875;1
  225;C;GCO_1;146;3;321,5625;275,625;275,625;3;205,625;205,625;161,875;0
  226;C;GCO_2;146;3;321,5625;367,5;367,5;3;205,625;205,625;245;1
  227;C;GCO_1;152;2;266,875;266,875;;2;203,4375;161,875;;0
  228;C;GCO_2;152;2;266,875;266,875;;2;203,4375;245;;1
  229;C;GCO_1;153;2;376,25;376,25;;2;203,4375;161,875;;0
  230;C;GCO_2;153;2;376,25;376,25;;2;203,4375;245;;1
  231;C;GCO_1;154;3;317,1875;358,75;358,75;3;214,375;214,375;245;0
  232;C;GCO_2;154;3;317,1875;275,625;275,625;3;214,375;214,375;245;1
  233;C;GCO_1;155;3;207,8125;253,75;253,75;3;350;350;288,75;0
  234;C;GCO_2;155;3;207,8125;161,875;161,875;3;350;350;393,75;1
  235;C;GCO_1;156;2;262,5;262,5;;2;354,375;288,75;;0
  236;C;GCO_2;156;2;262,5;262,5;;2;354,375;420;;1
  237;C;GCO_1;157;3;295,3125;271,25;271,25;3;363,125;363,125;288,75;0
  238;C;GCO_2;157;3;295,3125;319,375;319,375;3;363,125;363,125;411,25;1
  239;C;GCO_1;158;3;363,125;328,125;328,125;3;328,125;328,125;350;1
  240;C;GCO_2;158;2;363,125;363,125;;2;328,125;306,25;;0
  241;C;GCO_1;159;2;328,125;328,125;;2;380,625;350;;0
  242;C;GCO_2;159;2;328,125;328,125;;2;380,625;411,25;;1
  243;C;GCO_1;160;3;212,1875;170,625;170,625;3;358,75;358,75;393,75;0
  244;C;GCO_2;160;3;212,1875;253,75;253,75;3;358,75;358,75;420;1
  245;C;GCO_1;161;3;319,375;262,5;262,5;3;476,875;476,875;420;0
  246;C;GCO_2;161;3;319,375;376,25;376,25;3;476,875;476,875;411,25;1
  247;C;GCO_1;170;2;371,875;371,875;;2;358,75;411,25;;0
  248;C;GCO_2;170;2;371,875;371,875;;2;358,75;306,25;;1
  249;C;GCO_1;171;2;376,25;376,25;;2;258,125;245;;0
  250;C;GCO_2;171;3;376,25;376,25;389,375;3;266,875;271,25;271,25;1
  251;C;GCO_1;172;2;363,125;363,125;;2;271,25;245;;0
  252;C;GCO_2;172;2;363,125;363,125;;2;280;306,25;;1
  253;C;GCO_1;173;2;262,5;262,5;;2;262,5;245;;0
  254;C;GCO_2;173;2;262,5;262,5;;2;271,25;288,75;;1
  255;C;GCO_1;174;2;376,25;376,25;;2;293,125;306,25;;0
  256;C;GCO_2;174;3;376,25;376,25;389,375;3;284,375;280;280;1
  257;C;GCO_1;175;2;262,5;262,5;;2;148,75;161,875;;0
  258;C;GCO_1;176;2;376,25;376,25;;2;148,75;161,875;;0
  259;C;GCO_1;177;2;385;385;;2;231,875;245;;0
  260;C;GCO_1;178;3;275,625;271,25;271,25;3;262,5;262,5;245;0
  261;C;GCO_1;179;3;275,625;271,25;271,25;3;271,25;271,25;288,75;0
  262;C;GCO_1;180;2;380,625;380,625;;2;319,375;306,25;;0
  263;C;GCO_1;181;2;336,875;336,875;;2;363,125;350;;0
  264;C;GCO_1;182;2;323,75;323,75;;2;424,375;411,25;;0
  265;C;GCO_1;183;2;161,875;161,875;;2;406,875;393,75;;0
  266;C;GCO_1;184;2;253,75;253,75;;2;433,125;420;;0
  267;C;GCO_1;185;2;380,625;380,625;;2;402,5;411,25;;0
  268;C;GCO_1;186;2;446,25;424,375;;2;275,625;275,625;;0
  269;C;GCO_1;187;2;280;280;;2;105;122,5;;0
  270;C;GCO_1;188;2;393,75;393,75;;2;105;122,5;;0
  271;C;GCO_1;189;2;411,25;411,25;;2;459,375;441,875;;0
  272;C;GCO_1;190;2;236,25;236,25;;2;468,125;450,625;;0
  273;C;GCO_1;191;2;179,375;179,375;;2;441,875;424,375;;0
  274;C;GCO_1;192;2;196,875;218,75;;2;306,25;306,25;;0
  275;C;GCO_1;193;2;319,375;319,375;;2;301,875;319,375;;0
  276;C;GCO_1;195;2;157,5;157,5;;2;262,5;245;;0
  277;C;GCO_1;196;2;306,25;306,25;;2;424,375;411,25;;0
  278;C;GCO_1;197;2;393,75;393,75;;2;319,375;306,25;;0
  279;C;GCO_1;198;2;398,125;398,125;;2;398,125;411,25;;0
  280;C;GCO_1;199;2;188,125;188,125;;2;380,625;393,75;;0


$$IntGrfnet;FID(a:40);OP(a:1);loc_name(a:80);fold_id(p);snap_on(i);ortho_on(i);pDataFolder(p)
********************************************************************************
*  Graphic
*
*  FID: Unique identifier for DGS file
*  OP: Operation (C=create, U=update, D=delete, M=merge, I=ignore)
*  loc_name: Name
*  fold_id: In Folder
*  snap_on: Drawing aids: Snap elements to grid
*  ortho_on: Drawing aids: Line routing
*  pDataFolder: Target folder for network elements in ElmNet,BlkDef,IntFolder,ElmSubstat,ElmTrfstat,ElmSite,ElmBranch,ElmSubmodel,ElmFolder,IntTemplate
********************************************************************************
  281;C;Grid;;1;1;85


$$IntTemplate;FID(a:40);OP(a:1);loc_name(a:80);fold_id(p)
********************************************************************************
*  Template Folder
*
*  FID: Unique identifier for DGS file
*  OP: Operation (C=create, U=update, D=delete, M=merge, I=ignore)
*  loc_name: Name
*  fold_id: In Folder
********************************************************************************
  282;C;Droop_controlled_VSC;


$$StaCubic;FID(a:40);OP(a:1);loc_name(a:80);fold_id(p);obj_bus(i);obj_id(p);it2p1(i);it2p2(i);it2p3(i)
********************************************************************************
*  Cubicle
*
*  FID: Unique identifier for DGS file
*  OP: Operation (C=create, U=update, D=delete, M=merge, I=ignore)
*  loc_name: Name
*  fold_id: In Folder
*  obj_bus: Bus Index
*  obj_id: Connected with in Elm*,RelFuse,StaSua*
*  it2p1: Phase 1
*  it2p2: Phase 2
*  it2p3: Phase 3
********************************************************************************
  283;C;Cub_1;90;0;58;0;1;2
  284;C;Cub_2;90;0;59;0;1;2
  285;C;Cub_3;90;0;60;0;1;2
  286;C;Cub_4(1);90;0;123;0;1;2
  287;C;Cub_1;91;1;58;0;1;2
  288;C;Cub_2;91;1;59;0;1;2
  289;C;Cub_3;91;0;61;0;1;2
  290;C;Cub_4;91;0;62;0;1;2
  291;C;Cub_5;91;0;63;0;1;2
  292;C;Cub_7;91;0;74;0;1;2
  293;C;Cub_8;91;0;115;0;1;2
  294;C;Cub_1;92;1;61;0;1;2
  295;C;Cub_2;92;0;64;0;1;2
  296;C;Cub_4;92;0;75;0;1;2
  297;C;Cub_5;92;0;116;0;1;2
  298;C;Cub_1;93;1;62;0;1;2
  299;C;Cub_2;93;1;64;0;1;2
  300;C;Cub_3;93;0;65;0;1;2
  301;C;Cub_5;93;0;112;0;1;2
  302;C;Cub_6;93;0;76;0;1;2
  303;C;Cub_7;93;0;111;0;1;2
  304;C;Cub_1;94;1;60;0;1;2
  305;C;Cub_2;94;1;63;0;1;2
  306;C;Cub_3;94;1;65;0;1;2
  307;C;Cub_4;94;0;113;0;1;2
  308;C;Cub_5;94;0;77;0;1;2
  309;C;Cub_1;95;0;67;0;1;2
  310;C;Cub_2;95;0;68;0;1;2
  311;C;Cub_3;95;0;66;0;1;2
  312;C;Cub_5;95;1;113;0;1;2
  313;C;Cub_8;95;0;78;0;1;2
  314;C;Cub_9;95;0;117;0;1;2
  315;C;Cub_1;96;1;111;0;1;2
  316;C;Cub_2;96;1;114;0;1;2
  317;C;Cub_3(1);96;0;118;0;1;2
  318;C;Cub_2;97;1;70;0;1;2
  319;C;Cub_3;97;1;112;0;1;2
  320;C;Cub_6;97;0;114;0;1;2
  321;C;Cub_7;97;0;79;0;1;2
  322;C;Cub_8;97;0;69;0;1;2
  323;C;Cub_9(1);97;0;86;0;1;2
  324;C;Cub_2;98;0;71;0;1;2
  325;C;Cub_3;98;0;80;0;1;2
  326;C;Cub_4;98;1;69;0;1;2
  327;C;Cub_5;98;0;119;0;1;2
  328;C;Cub_1;99;1;66;0;1;2
  329;C;Cub_2;99;1;71;0;1;2
  330;C;Cub_3;99;0;81;0;1;2
  331;C;Cub_4;99;0;87;0;1;2
  332;C;Cub_1;100;1;67;0;1;2
  333;C;Cub_2;100;0;72;0;1;2
  334;C;Cub_3;100;0;82;0;1;2
  335;C;Cub_4;100;0;120;0;1;2
  336;C;Cub_5;100;0;89;0;1;2
  337;C;Cub_1;101;1;68;0;1;2
  338;C;Cub_2;101;1;72;0;1;2
  339;C;Cub_3;101;0;73;0;1;2
  340;C;Cub_4;101;0;83;0;1;2
  341;C;Cub_5;101;0;121;0;1;2
  342;C;Cub_1;102;1;73;0;1;2
  343;C;Cub_2;102;0;70;0;1;2
  344;C;Cub_3;102;0;84;0;1;2
  345;C;Cub_4;102;0;122;0;1;2
  346;C;Cub_5;102;0;88;0;1;2
  347;C;Cub_1;103;0;50;0;1;2
  348;C;Cub_2;103;1;115;0;1;2
  349;C;Cub_1;104;0;51;0;1;2
  350;C;Cub_2;104;1;116;0;1;2
  351;C;Cub_1;105;0;52;0;1;2
  352;C;Cub_8;105;1;117;0;1;2
  353;C;Cub_1;106;0;53;0;1;2
  354;C;Cub_8;106;1;118;0;1;2
  355;C;Cub_1;107;0;54;0;1;2
  356;C;Cub_8;107;1;119;0;1;2
  357;C;Cub_1;108;0;55;0;1;2
  358;C;Cub_8;108;1;120;0;1;2
  359;C;Cub_1;109;0;56;0;1;2
  360;C;Cub_8;109;1;121;0;1;2
  361;C;Cub_1;110;0;57;0;1;2
  362;C;Cub_8;110;1;122;0;1;2


$$StaSwitch;FID(a:40);OP(a:1);loc_name(a:80);fold_id(p);on_off(i);typ_id(p);aUsage(a)
********************************************************************************
*  Switch
*
*  FID: Unique identifier for DGS file
*  OP: Operation (C=create, U=update, D=delete, M=merge, I=ignore)
*  loc_name: Name
*  fold_id: in Cubicle
*  on_off: Closed
*  typ_id: Type in TypSwitch
*  aUsage: Switch Type
********************************************************************************
  363;C;Switch;283;1;;cbk
  364;C;Switch;284;1;;cbk
  365;C;Switch;285;1;;cbk
  366;C;Switch;286;1;;cbk
  367;C;Switch;287;1;;cbk
  368;C;Switch;288;1;;cbk
  369;C;Switch;289;1;;cbk
  370;C;Switch;290;1;;cbk
  371;C;Switch;291;1;;cbk
  372;C;Switch;292;1;;cbk
  373;C;Switch;293;1;;cbk
  374;C;Switch;294;1;;cbk
  375;C;Switch;295;1;;cbk
  376;C;Switch;296;1;;cbk
  377;C;Switch;297;1;;cbk
  378;C;Switch;298;1;;cbk
  379;C;Switch;299;1;;cbk
  380;C;Switch;300;1;;cbk
  381;C;Switch;301;1;;cbk
  382;C;Switch;302;1;;cbk
  383;C;Switch;303;1;;cbk
  384;C;Switch;304;1;;cbk
  385;C;Switch;305;1;;cbk
  386;C;Switch;306;1;;cbk
  387;C;Switch;307;1;;cbk
  388;C;Switch;308;1;;cbk
  389;C;Switch;309;1;;cbk
  390;C;Switch;310;1;;cbk
  391;C;Switch;311;1;;cbk
  392;C;Switch;312;1;;cbk
  393;C;Switch;313;1;;cbk
  394;C;Switch;314;1;;cbk
  395;C;Switch;315;1;;cbk
  396;C;Switch;316;1;;cbk
  397;C;Switch;317;1;;cbk
  398;C;Switch;318;1;;cbk
  399;C;Switch;319;1;;cbk
  400;C;Switch;320;1;;cbk
  401;C;Switch;321;1;;cbk
  402;C;Switch;322;1;;cbk
  403;C;Switch;323;1;;cbk
  404;C;Switch;324;1;;cbk
  405;C;Switch;325;1;;cbk
  406;C;Switch;326;1;;cbk
  407;C;Switch;327;1;;cbk
  408;C;Switch;328;1;;cbk
  409;C;Switch;329;1;;cbk
  410;C;Switch;330;1;;cbk
  411;C;Switch;331;1;;cbk
  412;C;Switch;332;1;;cbk
  413;C;Switch;333;1;;cbk
  414;C;Switch;334;1;;cbk
  415;C;Switch;335;1;;cbk
  416;C;Switch;336;1;;cbk
  417;C;Switch;337;1;;cbk
  418;C;Switch;338;1;;cbk
  419;C;Switch;339;1;;cbk
  420;C;Switch;340;1;;cbk
  421;C;Switch;341;1;;cbk
  422;C;Switch;342;1;;cbk
  423;C;Switch;343;1;;cbk
  424;C;Switch;344;1;;cbk
  425;C;Switch;345;1;;cbk
  426;C;Switch;346;1;;cbk
  427;C;Switch;347;1;;cbk
  428;C;Switch;348;1;;cbk
  429;C;Switch;349;1;;cbk
  430;C;Switch;350;1;;cbk
  431;C;Switch;351;1;;cbk
  432;C;Switch;352;1;;cbk
  433;C;Switch;353;1;;cbk
  434;C;Switch;354;1;;cbk
  435;C;Switch;355;1;;cbk
  436;C;Switch;356;1;;cbk
  437;C;Switch;357;1;;cbk
  438;C;Switch;358;1;;cbk
  439;C;Switch;359;1;;cbk
  440;C;Switch;360;1;;cbk
  441;C;Switch;361;1;;cbk
  442;C;Switch;362;1;;cbk


$$TypBar;FID(a:40);OP(a:1);loc_name(a:80);fold_id(p);uknom(r);Ithlim(r);Tkr(r);Iplim(r)
********************************************************************************
*  Busbar Type
*
*  FID: Unique identifier for DGS file
*  OP: Operation (C=create, U=update, D=delete, M=merge, I=ignore)
*  loc_name: Name
*  fold_id: In Folder
*  uknom: Rated Voltage in kV
*  Ithlim: Limits: Rated Short-Time Thermal Current in kA
*  Tkr: Limits: Rated Short-Circuit Duration in s
*  Iplim: Limits: Short-Circuit Peak Current in kA
********************************************************************************
  443;C;BB_type_132_kV;;132;0;1;0
  444;C;BB_type_1_kV;;1;0;1;0
  445;C;BB_type_33_kV;;33;0;1;0


$$TypLne;FID(a:40);OP(a:1);loc_name(a:80);fold_id(p);uline(r);sline(r);InomAir(r);cohl_(i);rline(r);xline(r);rline0(r);xline0(r);Ithr(r);tmax(r);rtemp(r);systp(i);nlnph(i);nneutral(i);frnom(r);mlei(a:4);bline(r);bline0(r)
********************************************************************************
*  Line Type
*
*  FID: Unique identifier for DGS file
*  OP: Operation (C=create, U=update, D=delete, M=merge, I=ignore)
*  loc_name: Name
*  fold_id: In Folder
*  uline: Rated Voltage in kV
*  sline: Rated Current in kA
*  InomAir: Rated Current (in air) in kA
*  cohl_: Cable / OHL:Cable:Overhead Line
*  rline: Parameters per Length 1,2-Sequence: AC-Resistance R'(20°C) in Ohm/km
*  xline: Parameters per Length 1,2-Sequence: Reactance X' in Ohm/km
*  rline0: Parameters per Length Zero Sequence: AC-Resistance R0' in Ohm/km
*  xline0: Parameters per Length Zero Sequence: Reactance X0' in Ohm/km
*  Ithr: Rated Short-Time (1s) Current (Conductor) in kA
*  tmax: Parameters per Length 1,2-Sequence: Max. Operating Temperature in degC
*  rtemp: Max. End Temperature in degC
*  systp: System Type:AC:DC
*  nlnph: Phases:1:2:3
*  nneutral: Number of Neutrals:0:1
*  frnom: Nominal Frequency in Hz
*  mlei: Parameters per Length 1,2-Sequence: Conductor material
*  bline: Parameters per Length 1,2-Sequence: Susceptance B' in uS/km
*  bline0: Parameters per Length Zero Sequence: Susceptance B0' in uS/km
********************************************************************************
  446;C;LN_type_ 01-02;;132;1;9999;1;6,753542;20,61956;0;0;0;80;80;0;3;0;50;Cu;151,5152;0
  447;C;LN_type_ 01-05;;132;1;9999;1;9,414187;38,8625;0;0;0;80;80;0;3;0;50;Cu;282,3691;0
  448;C;LN_type_ 02-03;;132;1;9999;1;8,187537;34,49428;0;0;0;80;80;0;3;0;50;Cu;251,3774;0
  449;C;LN_type_ 02-04;;132;1;9999;1;10,12509;30,722;0;0;0;80;80;0;3;0;50;Cu;214,6465;0
  450;C;LN_type_ 02-05;;132;1;9999;1;9,922968;30,29685;0;0;0;80;80;0;3;0;50;Cu;195,1331;0
  451;C;LN_type_ 03-04;;132;1;9999;1;11,67582;29,80027;0;0;0;80;80;0;3;0;50;Cu;198,5767;0
  452;C;LN_type_ 04-05;;132;1;9999;1;2,326104;7,337246;0;0;0;80;80;0;3;0;50;Cu;73,46189;0
  453;C;LN_type_ 06-11;;33;1;9999;1;1,034332;2,166021;0;0;0;80;80;0;3;0;50;Cu;0;0
  454;C;LN_type_ 06-12;;33;1;9999;1;1,33849;2,785771;0;0;0;80;80;0;3;0;50;Cu;0;0
  455;C;LN_type_ 06-13;;33;1;9999;1;0,720373;1,41864;0;0;0;80;80;0;3;0;50;Cu;0;0
  456;C;LN_type_ 09-10;;33;1;9999;1;0,346410;0,920205;0;0;0;80;80;0;3;0;50;Cu;0;0
  457;C;LN_type_ 09-14;;33;1;9999;1;1,384228;2,944439;0;0;0;80;80;0;3;0;50;Cu;0;0
  458;C;LN_type_ 10-11;;33;1;9999;1;0,893524;2,091643;0;0;0;80;80;0;3;0;50;Cu;0;0
  459;C;LN_type_ 12-13;;33;1;9999;1;2,405819;2,176693;0;0;0;80;80;0;3;0;50;Cu;0;0
  460;C;LN_type_ 13-14;;33;1;9999;1;1,861428;3,789938;0;0;0;80;80;0;3;0;50;Cu;0;0


$$TypTr2;FID(a:40);OP(a:1);loc_name(a:80);fold_id(p);nt2ph(i);strn(r);frnom(r);utrn_h(r);utrn_l(r);uktr(r);pcutr(r);uk0tr(r);ur0tr(r);tr2cn_h(a:4);tr2cn_l(a:4);nt2ag(r);curmg(r);pfe(r);zx0hl_n(r);itapch(i);tap_side(i);dutap(r);phitr(r);nntap0(i);ntpmn(i);ntpmx(i);manuf(a:40)
********************************************************************************
*  2-Winding Transformer Type
*
*  FID: Unique identifier for DGS file
*  OP: Operation (C=create, U=update, D=delete, M=merge, I=ignore)
*  loc_name: Name
*  fold_id: In Folder
*  nt2ph: Technology
*  strn: Rated Power in MVA
*  frnom: Nominal Frequency in Hz
*  utrn_h: Rated Voltage: HV-Side in kV
*  utrn_l: Rated Voltage: LV-Side in kV
*  uktr: Positive Sequence Impedance: Short-Circuit Voltage uk in %
*  pcutr: Positive Sequence Impedance: Copper Losses in kW
*  uk0tr: Zero Sequence Impedance: Short-Circuit Voltage uk0 in %
*  ur0tr: Zero Sequence Impedance: SHC-Voltage (Re(uk0)) uk0r in %
*  tr2cn_h: Vector Group: HV-Side:Y :YN:Z :ZN:D
*  tr2cn_l: Vector Group: LV-Side:Y :YN:Z :ZN:D
*  nt2ag: Vector Group: Phase Shift in *30deg
*  curmg: Magnetising Impedance: No Load Current in %
*  pfe: Magnetising Impedance: No Load Losses in kW
*  zx0hl_n: Zero Sequence Magnetising Impedance: Mag. Impedance/uk0
*  itapch: Tap Changer 1
*  tap_side: Tap Changer 1: at Side:HV:LV
*  dutap: Tap Changer 1: Additional voltage per tap in %
*  phitr: Tap Changer 1: Phase of du in deg
*  nntap0: Tap Changer 1: Neutral Position
*  ntpmn: Tap Changer 1: Minimum Position
*  ntpmx: Tap Changer 1: Maximum Position
*  manuf: Manufacturer
********************************************************************************
  461;C;TR_type_04-07;;3;100;60;132;1;20,912;0;0;0;YN;YN;0;0;0;100;1;0;2,2;0;0;-1;1;
  462;C;TR_type_04-09;;3;100;60;132;33;55,618;0;0;0;YN;YN;0;0;0;100;1;0;3,1;0;0;-1;1;
  463;C;TR_type_05-06;;3;100;60;132;33;25,202;0;0;0;YN;YN;0;0;0;100;1;0;6,8;0;0;-1;1;
  464;C;TR_type_07-09;;3;100;60;33;1;11,001;0;0;0;YN;YN;0;0;0;100;1;0;100;0;0;-1;1;
  465;C;TR_type_34_MVA_1/0.4_kV;126;3;12;60;1;0,4;10;0;3;0;YN;YN;0;0;0;100;1;0;0;0;0;0;0;
  466;C;TR_type_34_MVA_132/0.4_kV;126;3;12;60;132;0,4;10;0;3;0;YN;YN;0;0;0;100;1;0;0;0;0;0;0;
  467;C;TR_type_34_MVA_33/0.4_kV;126;3;12;60;33;0,4;10;0;3;0;YN;YN;0;0;0;100;1;0;0;0;0;0;0;
